ZINC20533791
     RDKit          3D

 58 62  0  0  0  0  0  0  0  0999 V2000
    9.1397   -0.5129   -0.6654 C   0  0  0  0  0  0  0  0  0  0  0  0
    7.7037   -0.1197   -0.4791 C   0  0  0  0  0  0  0  0  0  0  0  0
    7.3772    1.1525    0.0018 C   0  0  0  0  0  0  0  0  0  0  0  0
    6.0426    1.5149    0.2041 C   0  0  0  0  0  0  0  0  0  0  0  0
    5.0061    0.6089   -0.0636 C   0  0  0  0  0  0  0  0  0  0  0  0
    3.5665    1.0113    0.1771 C   0  0  0  0  0  0  0  0  0  0  0  0
    2.9800    0.3002    1.4046 C   0  0  0  0  0  0  0  0  0  0  0  0
    1.5037    0.6938    1.6058 C   0  0  0  0  0  0  0  0  0  0  0  0
    0.8508   -0.2460    2.5966 C   0  0  0  0  0  0  0  0  0  0  0  0
   -0.4010    0.1342    2.9434 F   0  0  0  0  0  0  0  0  0  0  0  0
    1.5669   -0.2916    3.7474 F   0  0  0  0  0  0  0  0  0  0  0  0
    0.7723   -1.5131    2.1289 F   0  0  0  0  0  0  0  0  0  0  0  0
    0.7895    0.6999    0.3369 N   0  0  0  0  0  0  0  0  0  0  0  0
   -0.5483    0.8137    0.2756 N   0  0  0  0  0  0  0  0  0  0  0  0
   -0.8220    0.8162   -1.0494 C   0  0  0  0  0  0  0  0  0  0  0  0
   -2.1977    0.9267   -1.5680 C   0  0  0  0  0  0  0  0  0  0  0  0
   -2.4353    1.5038   -2.6298 O   0  0  0  0  0  0  0  0  0  0  0  0
   -3.2729    0.3759   -0.8326 N   0  0  0  0  0  0  0  0  0  0  0  0
   -3.1164   -0.3783    0.4315 C   0  0  0  0  0  0  0  0  0  0  0  0
   -4.2491   -1.3895    0.7403 C   0  0  0  0  0  0  0  0  0  0  0  0
   -5.3953   -1.2070   -0.2118 N   0  0  0  0  0  4  0  0  0  0  0  0
   -6.6791   -1.9343    0.0717 C   0  0  0  0  0  0  0  0  0  0  0  0
   -7.7766   -0.9264   -0.2636 C   0  0  0  0  0  0  0  0  0  0  0  0
   -7.0917    0.1838   -1.0524 C   0  0  0  0  0  0  0  0  0  0  0  0
   -5.7341    0.2595   -0.3855 C   0  0  0  0  0  0  0  0  0  0  0  0
   -4.6027    0.9164   -1.1745 C   0  0  0  0  0  0  0  0  0  0  0  0
    0.3817    0.7781   -1.8111 C   0  0  0  0  0  0  0  0  0  0  0  0
    0.5399    0.7850   -3.5006 Cl  0  0  0  0  0  0  0  0  0  0  0  0
    1.3987    0.7232   -0.8877 C   0  0  0  0  0  0  0  0  0  0  0  0
    2.7503    0.6814   -0.9906 N   0  0  0  0  0  0  0  0  0  0  0  0
    5.3420   -0.6715   -0.5318 C   0  0  0  0  0  0  0  0  0  0  0  0
    6.6763   -1.0329   -0.7332 C   0  0  0  0  0  0  0  0  0  0  0  0
    9.5636   -0.8445    0.2876 H   0  0  0  0  0  0  0  0  0  0  0  0
    9.7260    0.3319   -1.0419 H   0  0  0  0  0  0  0  0  0  0  0  0
    9.2347   -1.3251   -1.3940 H   0  0  0  0  0  0  0  0  0  0  0  0
    8.1640    1.8721    0.2203 H   0  0  0  0  0  0  0  0  0  0  0  0
    5.8258    2.5150    0.5732 H   0  0  0  0  0  0  0  0  0  0  0  0
    3.5176    2.0981    0.3289 H   0  0  0  0  0  0  0  0  0  0  0  0
    3.0540   -0.7891    1.2752 H   0  0  0  0  0  0  0  0  0  0  0  0
    3.5580    0.5468    2.3043 H   0  0  0  0  0  0  0  0  0  0  0  0
    1.4506    1.7236    1.9801 H   0  0  0  0  0  0  0  0  0  0  0  0
   -3.0613    0.3600    1.2400 H   0  0  0  0  0  0  0  0  0  0  0  0
   -2.1802   -0.9426    0.4193 H   0  0  0  0  0  0  0  0  0  0  0  0
   -3.9021   -2.4202    0.6145 H   0  0  0  0  0  0  0  0  0  0  0  0
   -4.6216   -1.2584    1.7619 H   0  0  0  0  0  0  0  0  0  0  0  0
   -5.0491   -1.5292   -1.1288 H   0  0  0  0  0  0  0  0  0  0  0  0
   -6.7022   -2.8145   -0.5774 H   0  0  0  0  0  0  0  0  0  0  0  0
   -6.7024   -2.2335    1.1238 H   0  0  0  0  0  0  0  0  0  0  0  0
   -8.5988   -1.3844   -0.8216 H   0  0  0  0  0  0  0  0  0  0  0  0
   -8.1965   -0.5201    0.6647 H   0  0  0  0  0  0  0  0  0  0  0  0
   -7.0046   -0.1018   -2.1075 H   0  0  0  0  0  0  0  0  0  0  0  0
   -7.6388    1.1293   -0.9967 H   0  0  0  0  0  0  0  0  0  0  0  0
   -5.8134    0.6868    0.6233 H   0  0  0  0  0  0  0  0  0  0  0  0
   -4.5952    1.9975   -0.9908 H   0  0  0  0  0  0  0  0  0  0  0  0
   -4.7532    0.7731   -2.2515 H   0  0  0  0  0  0  0  0  0  0  0  0
    3.1897    0.9049   -1.8870 H   0  0  0  0  0  0  0  0  0  0  0  0
    4.5620   -1.3991   -0.7481 H   0  0  0  0  0  0  0  0  0  0  0  0
    6.9080   -2.0329   -1.0936 H   0  0  0  0  0  0  0  0  0  0  0  0
  1  2  1  0
  2  3  2  0
  3  4  1  0
  4  5  2  0
  5  6  1  0
  6  7  1  0
  7  8  1  0
  8  9  1  0
  9 10  1  0
  9 11  1  0
  9 12  1  0
  8 13  1  0
 13 14  1  0
 14 15  2  0
 15 16  1  0
 16 17  2  0
 16 18  1  0
 18 19  1  0
 19 20  1  0
 20 21  1  0
 21 22  1  0
 22 23  1  0
 23 24  1  0
 24 25  1  0
 25 26  1  0
 15 27  1  0
 27 28  1  0
 27 29  2  0
 29 30  1  0
  5 31  1  0
 31 32  2  0
 32  2  1  0
 30  6  1  0
 29 13  1  0
 26 18  1  0
 25 21  1  0
  1 33  1  0
  1 34  1  0
  1 35  1  0
  3 36  1  0
  4 37  1  0
  6 38  1  0
  7 39  1  0
  7 40  1  0
  8 41  1  0
 19 42  1  0
 19 43  1  0
 20 44  1  0
 20 45  1  0
 21 46  1  0
 22 47  1  0
 22 48  1  0
 23 49  1  0
 23 50  1  0
 24 51  1  0
 24 52  1  0
 25 53  1  0
 26 54  1  0
 26 55  1  0
 30 56  1  0
 31 57  1  0
 32 58  1  0
M  CHG  1  21   1
M  END
